16
 generated by VMD
 C         1.230000        0.710000        0.000000
 H         2.162000        1.249000        0.000000
 C         0.000000        1.420000        0.000000
 S        -0.384173        2.890538       -0.018158
 C        -1.230000        0.710000        0.000000
 H        -2.162000        1.249000        0.000000
 C        -1.230000       -0.710000        0.000000
 C        -2.528489       -1.460950        0.000000
 C         0.000000       -1.420000        0.000000
 H         0.000000       -2.497000        0.000000
 C         1.230000       -0.710000        0.000000
 H         2.162000       -1.249000        0.000000
 H        -1.765885        3.273682       -0.026759
 H        -2.902080       -1.558023        1.042000
 H        -3.300427       -0.923161       -0.592000
 H        -2.409445       -2.483757       -0.419000
