   12

C       1.244281    0.700703    0.000000
H       2.209426    1.264640    0.000000
C       0.019440    1.418936   -0.000000
H       0.000451    2.535752    0.000000
C      -1.203626    0.694753   -0.000000
Cl     -2.726166    1.573747   -0.000000
C      -1.219199   -0.726531    0.000000
H      -2.195905   -1.268464    0.000000
C       0.015357   -1.427929   -0.000000
H       0.009418   -2.545714   -0.000000
C       1.247347   -0.720142    0.000000
H       2.215071   -1.278772   -0.000000
